Version 4
SHEET 1 1812 1280
WIRE 192 336 -304 336
WIRE -304 352 -304 336
WIRE -384 480 -384 448
WIRE -384 576 -384 560
WIRE -304 576 -304 480
WIRE -304 576 -384 576
WIRE -112 576 -304 576
WIRE -48 576 -112 576
WIRE -16 576 -48 576
WIRE -736 672 -848 672
WIRE -480 672 -656 672
WIRE -304 688 -304 576
WIRE -304 704 -304 688
WIRE 192 704 192 336
WIRE -480 752 -480 672
WIRE -112 784 -112 576
WIRE -848 800 -848 672
WIRE -848 800 -1120 800
WIRE -736 800 -848 800
WIRE -480 800 -480 752
WIRE -480 800 -656 800
WIRE -400 800 -480 800
WIRE -384 800 -400 800
WIRE -48 816 -48 576
WIRE -1120 848 -1120 800
WIRE -400 848 -400 800
WIRE -304 848 -304 832
WIRE -1120 960 -1120 928
WIRE -400 960 -400 928
WIRE -400 960 -1120 960
WIRE -304 960 -304 848
WIRE -304 960 -400 960
WIRE -112 960 -112 864
WIRE -112 960 -304 960
WIRE -48 960 -48 880
WIRE -48 960 -112 960
WIRE 192 960 192 784
WIRE 192 960 -48 960
WIRE -400 976 -400 960
FLAG -400 976 0
FLAG -16 576 mid
FLAG -480 752 g
FLAG -304 688 D_LS
FLAG -304 848 S_LS
SYMBOL voltage -1120 832 R0
WINDOW 3 -248 146 Left 2
WINDOW 123 0 0 Left 2
WINDOW 39 0 0 Left 2
WINDOW 0 -29 0 Left 2
SYMATTR Value PULSE(0 5 30e-6 10e-9 10e-9 10e-6 50e-6 1)
SYMATTR InstName V1
SYMBOL voltage 192 688 R0
WINDOW 123 0 0 Left 2
WINDOW 39 24 124 Left 2
WINDOW 3 24 44 Left 2
SYMATTR SpiceLine Rser=10e-3
SYMATTR Value {Vdc}
SYMATTR InstName V2
SYMBOL current -112 864 R180
WINDOW 123 0 0 Left 2
WINDOW 39 0 0 Left 2
SYMATTR InstName I1
SYMATTR Value {Idc}
SYMBOL cap -64 816 R0
SYMATTR InstName C2
SYMATTR Value 10e-12
SYMBOL EPCGaN -384 448 R0
WINDOW 3 -78 -29 Left 2
SYMATTR Value EPC8009
SYMATTR InstName U3
SYMBOL EPCGaN -384 800 R0
WINDOW 3 -78 -29 Left 2
SYMATTR Value EPC8009
SYMATTR InstName U4
SYMBOL res -640 784 R90
WINDOW 0 -1 57 VBottom 2
WINDOW 3 32 63 VTop 2
SYMATTR InstName R3
SYMATTR Value {RGOFF}
SYMBOL res -752 688 R270
WINDOW 0 32 56 VTop 2
WINDOW 3 0 56 VBottom 2
SYMATTR InstName R4
SYMATTR Value {RGON}
SYMBOL res -400 464 R0
SYMATTR InstName R2
SYMATTR Value 0.6
TEXT 440 808 Left 2 !.tran 0 50e-6 0 1n startup
TEXT 440 744 Left 2 !.meas TRAN Eoff INTEG V(D_LS,S_LS)*Ix(U4:drainin) TRIG time=toff1 TARG time=toff2
TEXT 432 696 Left 2 !.param toff1=39u toff2=41u
TEXT 440 768 Left 2 !.meas TRAN Eon INTEG V(D_LS,S_LS)*I(L7) TRIG time=ton1 TARG time=ton2
TEXT 432 672 Left 2 !.param ton1=30u ton2=31u
TEXT 432 648 Left 2 !.param L=Vdc/Idc*100u Rl=Vdc/Idc/500
TEXT 432 624 Left 2 !.param Vdc=40 Idc=10
TEXT 440 840 Left 2 !.step param Idc 1 10 5\n.step param Vdc 5 40 10
TEXT -112 440 Left 2 !.param LS_Source = 0.1n
TEXT -112 504 Left 2 !.param L_Drain = 0.1nH
TEXT -1024 912 Left 2 !.param VDRV_P = 5; Gate Supply
TEXT -1024 936 Left 2 !.param VDRV_N = 0; Gate Supply
TEXT -112 472 Left 2 !.param LS_Kelvin = 4nH; 2nH intern +4nH extern
TEXT -112 416 Left 2 !.param L_GATE = 0.1nH;
TEXT -1160 288 Left 2 !.option ITL1=500\n.option ITL2=500\n.option ITL4=500\n.option RELTOL=0.01\n.option ABSTOL=1E-09\n.option CHGTOL=1E-12\n.option VNTOL=1E-6\n.option GMIN=1E-15\n.option TRTOL=1\n.option noopiter\n.option gminsteps=0\n.option topologycheck=0\n \n.option temp=25; Set Tj
TEXT -864 568 Left 2 !.param RGOFF = 0.6 ;Turn-off Gate Resistor LM5113
TEXT -864 592 Left 2 !.param RGON = 2.2; Turn-on Gate Resistor
